data/D026799/Lines.dss
New Line.line0 Units=km Length=0.001 bus1=n250081.1.2.3 bus2=n250082.1.2.3 switch=n enabled=y phases=3 Linecode=unknown_linecode_3
New Line.line1 Units=km Length=0.001 bus1=n250082.1.2.3 bus2=n250083.1.2.3 switch=n enabled=y phases=3 Linecode=Twin_95AL_ABC_3
New Line.line10 Units=km Length=0.002 bus1=n250090.1.2.3 bus2=n643490.1.2.3 switch=n enabled=y phases=3 Linecode=unknown_linecode_3
New Line.line11 Units=km Length=0.04309 bus1=n250089.1.2.3 bus2=n250091.1.2.3 switch=n enabled=y phases=3 Linecode=unknown_linecode_3
New Line.line12 Units=km Length=0.002 bus1=n250091.1.2.3 bus2=n643491.1.2.3 switch=n enabled=y phases=3 Linecode=unknown_linecode_3
New Line.line13 Units=km Length=0.013460000000000001 bus1=n250085.1.2.3 bus2=n250092.1.2.3 switch=n enabled=y phases=3 Linecode=25AL_ABC_3
New Line.line14 Units=km Length=0.001 bus1=n250092.1.2.3 bus2=n643492.1.2.3 switch=n enabled=y phases=3 Linecode=25AL_ABC_3
New Line.line15 Units=km Length=0.04352 bus1=n250087.1.2.3 bus2=n250093.1.2.3 switch=n enabled=y phases=3 Linecode=66_HDCU_(19/2.11)_3
New Line.line16 Units=km Length=0.03247 bus1=n250093.1.2.3 bus2=n250094.1.2.3 switch=n enabled=y phases=3 Linecode=66_HDCU_(19/2.11)_3
New Line.line17 Units=km Length=0.00193 bus1=n250094.1.2.3 bus2=n643493.1.2.3 switch=n enabled=y phases=3 Linecode=66_HDCU_(19/2.11)_3
New Line.line18 Units=km Length=0.01408 bus1=n250084.1.2.3 bus2=n250095.1.2.3 switch=n enabled=y phases=3 Linecode=unknown_linecode_3
New Line.line19 Units=km Length=0.001 bus1=n250095.1.2.3 bus2=n643494.1.2.3 switch=n enabled=y phases=3 Linecode=unknown_linecode_3
New Line.line2 Units=km Length=0.0264 bus1=n250083.1.2.3 bus2=n250084.1.2.3 switch=n enabled=y phases=3 Linecode=Twin_95AL_ABC_3
New Line.line3 Units=km Length=0.05582 bus1=n250084.1.2.3 bus2=n250085.1.2.3 switch=n enabled=y phases=3 Linecode=unknown_linecode_3
New Line.line4 Units=km Length=0.06517 bus1=n250085.1.2.3 bus2=n250086.1.2.3 switch=n enabled=y phases=3 Linecode=unknown_linecode_3
New Line.line5 Units=km Length=0.001 bus1=n250086.1.2.3 bus2=n250087.1.2.3 switch=n enabled=y phases=3 Linecode=unknown_linecode_3
New Line.line6 Units=km Length=0.00149 bus1=n250087.1.2.3 bus2=n643489.1.2.3 switch=n enabled=y phases=3 Linecode=66_HDCU_(19/2.11)_3
New Line.line7 Units=km Length=0.04628 bus1=n250087.1.2.3 bus2=n250088.1.2.3 switch=n enabled=y phases=3 Linecode=unknown_linecode_3
New Line.line8 Units=km Length=0.00133 bus1=n250088.1.2.3 bus2=n250089.1.2.3 switch=n enabled=y phases=3 Linecode=unknown_linecode_3
New Line.line9 Units=km Length=0.04352 bus1=n250089.1.2.3 bus2=n250090.1.2.3 switch=n enabled=y phases=3 Linecode=unknown_linecode_3
